Version 4
SHEET 1 1504 680
WIRE 688 64 320 64
WIRE -80 80 -208 80
WIRE 320 80 320 64
WIRE 320 80 144 80
WIRE 384 80 320 80
WIRE -208 128 -208 80
WIRE -80 144 -144 144
WIRE 688 144 144 144
WIRE -80 208 -336 208
WIRE 288 208 144 208
WIRE 384 208 384 160
WIRE -80 272 -96 272
WIRE 240 272 144 272
WIRE 288 272 288 208
WIRE 688 272 688 224
WIRE 688 272 288 272
WIRE 688 304 688 272
WIRE 800 304 688 304
WIRE -96 336 -96 272
WIRE 320 336 320 80
WIRE 320 336 -96 336
WIRE -144 384 -144 144
WIRE 688 384 688 304
WIRE 688 384 -144 384
WIRE 240 432 240 272
WIRE 320 432 320 336
WIRE 320 496 240 496
WIRE 800 496 800 368
WIRE 800 496 320 496
WIRE 240 512 240 496
FLAG -208 128 0
FLAG 384 208 0
FLAG 240 512 0
SYMBOL Misc\\NE555 32 176 R0
SYMATTR InstName U1
SYMBOL voltage 384 64 R0
WINDOW 123 0 0 Left 0
WINDOW 39 0 0 Left 0
SYMATTR InstName V1
SYMATTR Value 5
SYMBOL cap 224 432 R0
SYMATTR InstName C1
SYMATTR Value 10nF
SYMBOL cap 304 432 R0
SYMATTR InstName C4
SYMATTR Value 100µF
SYMBOL res 672 128 R0
SYMATTR InstName R3
SYMATTR Value 1000K
SYMBOL res 672 48 R0
SYMATTR InstName R4
SYMATTR Value 10K
SYMBOL cap 784 304 R0
SYMATTR InstName C2
SYMATTR Value =ct
TEXT -228 406 Left 2 !.tran .001
TEXT 912 288 Left 2 !.param ct = 28p\n.step param ct list 30p 100p 200p 400p 500p 600p
